Version 4
SHEET 1 1568 680
WIRE 240 -160 240 -208
WIRE 240 -144 240 -160
WIRE -48 -128 -128 -128
WIRE 80 -128 16 -128
WIRE -128 -64 -128 -128
WIRE -96 -64 -128 -64
WIRE -48 -64 -96 -64
WIRE 80 -64 80 -128
WIRE 80 -64 32 -64
WIRE 144 -64 80 -64
WIRE 192 -64 144 -64
WIRE 80 80 80 16
WIRE 240 80 240 -48
WIRE 240 80 80 80
WIRE 304 80 240 80
WIRE 528 80 304 80
WIRE 736 80 608 80
WIRE 912 80 736 80
WIRE -16 128 -64 128
WIRE 96 128 48 128
WIRE 240 128 240 80
WIRE 736 144 736 80
WIRE -128 208 -128 -64
WIRE -64 208 -64 128
WIRE -32 208 -64 208
WIRE 0 208 -32 208
WIRE 96 208 96 128
WIRE 96 208 80 208
WIRE 160 208 96 208
WIRE 192 208 160 208
WIRE 912 208 912 80
WIRE -64 288 -128 288
WIRE 96 288 -64 288
WIRE 240 288 240 224
WIRE 240 288 96 288
WIRE 736 288 240 288
WIRE 912 288 736 288
WIRE 240 304 240 288
FLAG 240 304 0
FLAG 240 -288 0
FLAG 912 80 Vout
FLAG 144 -64 Vhi_g
FLAG 160 208 Vlo_g
FLAG 304 80 Vmid
FLAG -96 -64 Vhp
FLAG -32 208 Vlp
FLAG 240 -160 Vsup
SYMBOL res 896 192 R0
SYMATTR InstName R1
SYMATTR Value 1
SYMBOL voltage 240 -192 R180
WINDOW 123 0 0 Left 0
WINDOW 39 24 -12 Left 2
SYMATTR SpiceLine Rser=0.1 Cpar=0.1u
SYMATTR InstName V1
SYMATTR Value 30
SYMBOL voltage -64 192 R0
WINDOW 3 -68 146 Left 2
WINDOW 123 0 0 Left 0
WINDOW 39 0 0 Left 0
WINDOW 0 -16 59 Left 2
SYMATTR Value PWL file=Ulow_PWL.txt
SYMATTR InstName V2
SYMBOL res 48 -80 R90
WINDOW 0 49 118 VBottom 2
WINDOW 3 32 56 VTop 2
SYMATTR InstName R2
SYMATTR Value 100
SYMBOL res 96 192 R90
WINDOW 0 0 56 VBottom 2
WINDOW 3 32 56 VTop 2
SYMATTR InstName R3
SYMATTR Value 100
SYMBOL res 64 -80 R0
SYMATTR InstName R4
SYMATTR Value 100k
SYMBOL res 80 192 R0
SYMATTR InstName R5
SYMATTR Value 100k
SYMBOL cap 720 224 R0
WINDOW 3 42 47 Left 2
SYMATTR Value 470µ
SYMATTR InstName C1
SYMBOL res 720 128 R0
SYMATTR InstName R6
SYMATTR Value 240m
SYMBOL ind 512 96 R270
WINDOW 0 32 56 VTop 2
WINDOW 3 5 56 VBottom 2
SYMATTR InstName L1
SYMATTR Value 64µ
SYMBOL voltage -128 192 R0
WINDOW 3 -16 188 Left 2
WINDOW 123 0 0 Left 0
WINDOW 39 0 0 Left 0
WINDOW 0 -16 59 Left 2
SYMATTR Value PWL file=UHi_PWL.txt
SYMATTR InstName V3
SYMBOL AutoGenerated\\CSD17510Q5A 224 176 R0
SYMATTR InstName U1
SYMBOL AutoGenerated\\CSD17510Q5A 224 -96 R0
SYMATTR InstName U2
SYMBOL schottky 16 -144 R90
WINDOW 0 0 32 VBottom 2
WINDOW 3 32 32 VTop 2
SYMATTR InstName D1
SYMATTR Value RBLQ3LAM10
SYMATTR Description Diode
SYMATTR Type diode
SYMBOL schottky 48 112 R90
WINDOW 0 0 32 VBottom 2
WINDOW 3 32 32 VTop 2
SYMATTR InstName D2
SYMATTR Value RBLQ3LAM10
SYMATTR Description Diode
SYMATTR Type diode
TEXT -128 -264 Left 2 !.tran 1ms startup
